<routes>
	<vType accel="1.5" decel = "2.0" id="Carrinheiro" length="2" maxSpeed = "1" carFollowModel="KraussPS" emissionClass="zero" personCapacity="1" vClass="ignoring" />
	<!-- vClass="truck" 	
	<route id="route0" edges="20000000001 50000000001 -143173606#3 537570796#5 -25171569#0 -651978028#2 -651978028#1 -651978028#0 -344887351#3 -344887351#2 -344887351#1 -344887351#0 70000000004 10000000004 20000000004 50000000004 -344887375#2 -344887375#1 -344887375#0 -37920888#1 344887382#1 344887377#0 -40532176#0 -265962236#2 -265962236#1 -32866095#5 -32866095#4 -32866095#3 -32866095#2 -32866095#1 -32866095#0 40532301#0 40532301#1 40532301#2 -40532193#4 -40532193#3 -40532193#2 40532201#0 40532201#1 40533014 40533015#0 40533015#1 40533015#2 40533015#3 695030700#1 40532208#0 40532208#1 360407187#1 -372550663#1 -372550664 40532290#5 40532290#6 40532290#7 40532290#8 -40532283#1 40532284#1 40532284#2 40532281#8 40000000008 10000000008 20000000008 50000000008 -40532281#8 -40532281#7 -40532281#6 814982564#0 814982564#1 814982564#2 -352169054 40000000007 10000000007 20000000007 60000000007 -344632917#2 -352169059 -40532279#3 -40532279#2 -40532279#1 40532357#0 40532357#1 40000000006 10000000006 20000000006 50000000006 -40532280#0 -355200993#4 -355200993#3 -355200993#2 -355200993#1 -355200993#0 -265878421#5 -265878421#4 -265878421#3 -265878421#2 -265878421#1 -265878421#0 -742452637 742452636 742452635 207073967#0 40000000002 10000000002 20000000002 50000000002 -207073967#0 -742452635 207232277#0 -536481095#0 -536481098#16 665487988#3 742452629#0 -742617600#1 -361529137#1 -361529137#0 -742452625#2 355559259#8 355559259#9 355559259#10 355559259#11 355559259#12 355559259#13 355559259#14 355559259#15 355559259#16 40000000003 10000000003 20000000003 50000000003 -344887350#2 -344887350#1 -344887350#0 -354917962#1 -354917962#0 354917972#0 354917972#1 354917972#2 848172141#0 848172140 354917972#4 354917972#5 40515263 40515264#0 40515264#1 40515264#2 40000000005 10000000005 20000000005 60000000005 444687418#0 444687418#1 344887373 40583345#0 40583345#1 207073948#0 274467575#0 274467575#1 40551746#4 651988119#0 651988119#1 -495771254#2 -495771254#1 651988120 -651988124 32866093#4 32866093#5 -344887375#2 -344887375#1 -344887375#0 -37920888#1 344887382#1 344887377#0 -40532176#0 -265962236#2 -265962236#1 -32866095#5 -32866095#4 -32866095#3 -32866095#2 -32866095#1 -32866095#0 40532301#0 40532301#1 40532301#2 40000000009 10000000009" />
	
	<vehicle depart="1" id="veh0" route="route0" type="Carrinheiro" />
	-->

</routes>
