<routes>
	<vType accel="1.5" decel = "2.0" id="Carrinheiro" length="2.5" maxSpeed = "1" carFollowModel="KraussPS" vClass="truck" />
	<!-- 
	<route id="route0" edges="100010 100008 -361060439#3 -361060439#2 -361060439#1 -344623102#4 -344623102#3 -40546016#3 -40546016#2 -233981256#7 -233981256#6 -233981256#5 -175338147 -361060437#4 -361060437#3 -361060437#2 -361060437#1 -361060437#0 361060421#0 361060421#1 361060421#2 361060423#0 233981255#1 233981255#2 233981255#3 -661321029#8 -661321029#7 -661321029#6 100021 100023" />
	<vehicle depart="1" id="veh0" route="route0" type="Carrinheiro" />
	 -->
</routes>
