<routes>
	<vType accel="1.5" decel = "2.0" id="Carrinheiro" length="2" maxSpeed = "1" carFollowModel="KraussPS" emissionClass="zero" personCapacity="1" vClass="ignoring" />
	<!-- vClass="truck" 	
	<route id="route0" edges="50000000011 221973522 221973523#0 221973523#1 221973523#2 639081437#2 4527484 -411190119#1" />
	
	<vehicle depart="1" id="veh0" route="route0" type="Carrinheiro" />
	-->

</routes>
