<?xml version="1.0" encoding="UTF-8"?>

<!-- generated on ter 16 mar 2021 15:29:20 by Eclipse SUMO netedit Version 1.8.0
<configuration xmlns:xsi="http://www.w3.org/2001/XMLSchema-instance" xsi:noNamespaceSchemaLocation="http://sumo.dlr.de/xsd/netconvertConfiguration.xsd">

    <output>
        <output-file value="/home/vitoria/Carrinheiros/simulation/test.net.xml"/>
    </output>

    <processing>
        <offset.disable-normalization value="true"/>
    </processing>

    <junctions>
        <no-turnarounds value="true"/>
    </junctions>

    <report>
        <aggregate-warnings value="5"/>
    </report>

</configuration>
-->

<net version="1.6" junctionCornerDetail="5" limitTurnSpeed="5.50" xmlns:xsi="http://www.w3.org/2001/XMLSchema-instance" xsi:noNamespaceSchemaLocation="http://sumo.dlr.de/xsd/net_file.xsd">

    <location netOffset="0.00,0.00" convBoundary="10.00,10.00,20.00,20.00" origBoundary="10000000000.00,10000000000.00,-10000000000.00,-10000000000.00" projParameter="!"/>

    <edge id="gneE1" from="gneJ3" to="gneJ4" priority="-1">
        <lane id="gneE1_0" index="0" speed="13.89" length="17.32" shape="11.13,8.87,10.00 21.13,18.87,20.00"/>
    </edge>

    <junction id="gneJ3" type="dead_end" x="10.00" y="10.00" z="10.00" incLanes="" intLanes="" shape="10.00,10.00,10.00 12.26,7.74,10.00"/>
    <junction id="gneJ4" type="dead_end" x="20.00" y="20.00" z="20.00" incLanes="gneE1_0" intLanes="" shape="22.26,17.74,20.00 20.00,20.00,20.00"/>

</net>
